Version 4
SHEET 1 916 1380
WIRE -1648 -512 -1648 -528
WIRE -320 -464 -528 -464
WIRE 96 -464 -256 -464
WIRE -1648 -416 -1648 -432
WIRE -1488 -416 -1648 -416
WIRE -1648 -400 -1648 -416
WIRE -1440 -336 -1520 -336
WIRE -128 -336 -256 -336
WIRE 96 -336 96 -464
WIRE 96 -336 -48 -336
WIRE -1648 -304 -1648 -320
WIRE -1520 -304 -1520 -336
WIRE -1520 -304 -1648 -304
WIRE -1648 -288 -1648 -304
WIRE -1648 -176 -1648 -208
WIRE -704 -144 -816 -144
WIRE -528 -144 -528 -464
WIRE -528 -144 -624 -144
WIRE -448 -144 -528 -144
WIRE -256 -144 -256 -336
WIRE -256 -144 -384 -144
WIRE -112 -144 -256 -144
WIRE 96 -128 96 -336
WIRE 96 -128 -48 -128
WIRE 192 -128 96 -128
WIRE -528 -48 -528 -144
WIRE -528 80 -528 32
WIRE -816 192 -816 -144
WIRE -816 192 -976 192
WIRE -1632 208 -1632 128
WIRE -320 256 -528 256
WIRE 96 256 -256 256
WIRE -128 384 -256 384
WIRE 96 384 96 256
WIRE 96 384 -48 384
WIRE -816 576 -816 192
WIRE -704 576 -816 576
WIRE -528 576 -528 256
WIRE -528 576 -624 576
WIRE -448 576 -528 576
WIRE -256 576 -256 384
WIRE -256 576 -384 576
WIRE -112 576 -256 576
WIRE 96 592 96 384
WIRE 96 592 -48 592
WIRE 192 592 96 592
WIRE -528 672 -528 576
WIRE -528 800 -528 752
FLAG -112 -112 Vcm
IOPIN -112 -112 In
FLAG -80 -160 Vdd
IOPIN -80 -160 In
FLAG -80 -96 0
FLAG 192 -128 Vout_bpf1
IOPIN 192 -128 Out
FLAG -528 80 0
FLAG -112 608 Vcm
IOPIN -112 608 In
FLAG -80 560 Vdd
IOPIN -80 560 In
FLAG -80 624 0
FLAG 192 592 Vout_bpf2
IOPIN 192 592 Out
FLAG -528 800 0
FLAG -976 192 Vin_audio
IOPIN -976 192 In
FLAG -1648 -176 0
FLAG -1648 -528 0
FLAG -1488 -416 Vdd
IOPIN -1488 -416 Out
FLAG -1440 -336 Vcm
IOPIN -1440 -336 Out
FLAG -1632 48 0
FLAG -1632 208 Vin_audio
IOPIN -1632 208 In
SYMBOL res -608 -160 R90
WINDOW 0 0 56 VBottom 2
WINDOW 3 32 56 VTop 2
SYMATTR InstName R1
SYMATTR Value 10k
SYMBOL cap -384 -160 R90
WINDOW 0 0 32 VBottom 2
WINDOW 3 32 32 VTop 2
SYMATTR InstName C1
SYMATTR Value 0.15µ
SYMBOL res -32 -352 R90
WINDOW 0 0 56 VBottom 2
WINDOW 3 32 56 VTop 2
SYMATTR InstName R2
SYMATTR Value 20k
SYMBOL OpAmps\\UniversalOpAmp3 -80 -128 R0
SYMATTR InstName U1
SYMBOL res -544 -64 R0
SYMATTR InstName R3
SYMATTR Value 50.25
SYMBOL cap -256 -480 R90
WINDOW 0 0 32 VBottom 2
WINDOW 3 32 32 VTop 2
SYMATTR InstName C2
SYMATTR Value 0.15µ
SYMBOL res -608 560 R90
WINDOW 0 0 56 VBottom 2
WINDOW 3 32 56 VTop 2
SYMATTR InstName R4
SYMATTR Value 10k
SYMBOL cap -384 560 R90
WINDOW 0 0 32 VBottom 2
WINDOW 3 32 32 VTop 2
SYMATTR InstName C3
SYMATTR Value 0.053µ
SYMBOL res -32 368 R90
WINDOW 0 0 56 VBottom 2
WINDOW 3 32 56 VTop 2
SYMATTR InstName R5
SYMATTR Value 20k
SYMBOL OpAmps\\UniversalOpAmp3 -80 592 R0
SYMATTR InstName U2
SYMBOL res -544 656 R0
SYMATTR InstName R6
SYMATTR Value 50.25
SYMBOL cap -256 240 R90
WINDOW 0 0 32 VBottom 2
WINDOW 3 32 32 VTop 2
SYMATTR InstName C4
SYMATTR Value 0.053µ
SYMBOL res -1664 -416 R0
WINDOW 0 36 40 Invisible 0
SYMATTR InstName R7
SYMATTR Value 10
SYMBOL res -1664 -304 R0
WINDOW 0 36 40 Invisible 0
SYMATTR InstName R8
SYMATTR Value 10
SYMBOL voltage -1648 -416 R180
WINDOW 0 24 96 Invisible 2
WINDOW 3 24 16 Left 2
SYMATTR InstName VDD1
SYMATTR Value 5V
SYMBOL voltage -1632 144 R180
WINDOW 0 24 96 Left 2
WINDOW 3 24 16 Left 2
WINDOW 123 0 0 Left 0
WINDOW 39 0 0 Left 0
SYMATTR InstName V1
SYMATTR Value SINE(2.5 0.45 5k)
TEXT -424 -672 Left 2 ;Bandpass Filter 1 (1kHz)
TEXT -400 1016 Left 2 ;Bandpass Filter 2 (3kHz)
TEXT -1864 1036 Left 2 !.tran 1 uic
TEXT 456 1304 Left 2 ;Done by Kaushik R EE20B057
TEXT 456 1336 Left 2 ;Analog Labs 2022 Summer
RECTANGLE Normal 160 144 -752 -640 2
RECTANGLE Normal 160 976 -752 176 2
RECTANGLE Normal 912 1376 352 1264 2
RECTANGLE Normal 896 1360 368 1280 2
