Version 4
SHEET 1 1260 756
WIRE -576 -96 -576 -112
WIRE -416 -96 -576 -96
WIRE -576 -64 -576 -96
WIRE 0 -32 -64 -32
WIRE 464 -32 224 -32
WIRE -416 -16 -464 -16
WIRE 0 0 -64 0
WIRE 464 16 464 -32
WIRE 608 16 464 16
WIRE 0 32 -160 32
WIRE -576 48 -576 16
WIRE -464 48 -464 -16
WIRE -464 48 -576 48
WIRE 608 48 544 48
WIRE 928 48 816 48
WIRE 1024 48 928 48
WIRE 0 64 -64 64
WIRE -576 80 -576 48
WIRE -464 112 -464 48
WIRE -416 112 -464 112
WIRE 928 144 928 48
WIRE -576 208 -576 160
WIRE 928 256 928 208
WIRE 928 256 512 256
WIRE 144 288 128 288
WIRE 928 304 928 256
WIRE 128 368 64 368
WIRE 304 368 192 368
WIRE -576 384 -576 336
WIRE 144 432 144 288
WIRE 304 448 304 368
WIRE 304 448 176 448
WIRE 352 448 304 448
WIRE 512 448 512 256
WIRE 512 448 432 448
WIRE 928 448 928 384
WIRE -160 464 -160 32
WIRE 64 464 64 368
WIRE 64 464 -160 464
WIRE 112 464 64 464
WIRE -576 528 -576 464
FLAG -64 -32 Vbias
IOPIN -64 -32 In
FLAG -64 0 Vcm
IOPIN -64 0 In
FLAG -64 64 Vdd
IOPIN -64 64 In
FLAG 544 48 Vdd
IOPIN 544 48 In
FLAG 928 448 0
FLAG -576 -192 0
FLAG -576 208 0
FLAG -416 -16 Vcm
IOPIN -416 -16 Out
FLAG -416 112 Vbias
IOPIN -416 112 Out
FLAG -416 -96 Vdd
IOPIN -416 -96 Out
FLAG -576 528 0
FLAG -576 336 Vref
IOPIN -576 336 Out
FLAG 144 496 0
FLAG 128 288 Vdd
IOPIN 128 288 In
FLAG 176 480 Vref
IOPIN 176 480 In
FLAG 1024 48 Vout
IOPIN 1024 48 Out
SYMBOL Exp_1_block 112 16 R0
SYMATTR InstName Exp-1-Block
SYMBOL Exp_2_block 704 16 R0
SYMATTR InstName Exp-2-Block
SYMBOL res 912 288 R0
SYMATTR InstName R_sense
SYMATTR Value 5
SYMBOL voltage -576 -96 R180
WINDOW 0 24 96 Left 2
WINDOW 3 24 16 Left 2
WINDOW 123 0 0 Left 0
WINDOW 39 0 0 Left 0
SYMATTR InstName V1
SYMATTR Value 5
SYMBOL res -592 -80 R0
SYMATTR InstName R2
SYMATTR Value 5
SYMBOL res -592 64 R0
SYMATTR InstName R3
SYMATTR Value 5
SYMBOL voltage -576 368 R0
WINDOW 123 0 0 Left 0
WINDOW 39 0 0 Left 0
SYMATTR InstName V2
SYMATTR Value 250m
SYMBOL Contrib\\Wurth\\Optoelectronics\\SignalLED\\Mono-color\\WL-TMRW 928 192 R0
SYMATTR InstName D1
SYMBOL cap 192 352 R90
WINDOW 0 0 32 VBottom 2
WINDOW 3 32 32 VTop 2
SYMATTR InstName C1
SYMATTR Value 25n
SYMBOL res 448 432 R90
WINDOW 0 0 56 VBottom 2
WINDOW 3 32 56 VTop 2
SYMATTR InstName R1
SYMATTR Value 50k
SYMBOL OpAmps\\UniversalOpAmp3 144 464 M0
SYMATTR InstName U1
TEXT -648 584 Left 2 !.tran 1 startup uic
TEXT 744 600 Left 2 ;Done by Kaushik, EE20B057
TEXT 744 632 Left 2 ;Analog Labs 2022 Summer
RECTANGLE Normal 1088 688 704 544 2
