Version 4
SHEET 1 7584 1812
WIRE 2080 -96 2032 -96
WIRE 6880 -80 6656 -80
WIRE 7120 -80 6960 -80
WIRE 7312 -80 7120 -80
WIRE 2032 -64 2032 -96
WIRE 2032 -64 2000 -64
WIRE 2080 -64 2032 -64
WIRE 2368 -64 2304 -64
WIRE 7120 -64 7120 -80
WIRE 1616 0 1616 -80
WIRE 2080 0 2000 0
WIRE 4864 0 4672 0
WIRE 7120 32 7120 0
WIRE 5824 48 5744 48
WIRE 6032 48 5888 48
WIRE 6208 48 6096 48
WIRE 4592 80 4416 80
WIRE 4736 80 4592 80
WIRE 1024 112 992 112
WIRE 4672 112 4672 0
WIRE 4736 112 4672 112
WIRE 4896 112 4800 112
WIRE 5072 112 4896 112
WIRE 3648 128 3648 80
WIRE 3664 128 3648 128
WIRE 3776 128 3776 16
WIRE 3776 128 3744 128
WIRE 6352 144 6352 96
WIRE 6656 144 6656 -80
WIRE 6656 144 6352 144
WIRE 6736 144 6656 144
WIRE 4896 160 4896 112
WIRE 4896 160 4688 160
WIRE 4592 176 4592 80
WIRE 6352 192 6352 144
WIRE 928 208 928 176
WIRE 992 208 992 112
WIRE 992 208 928 208
WIRE 3648 208 3648 128
WIRE 1088 224 1024 224
WIRE 3616 224 3568 224
WIRE 928 240 928 208
WIRE 3776 240 3776 128
WIRE 3776 240 3680 240
WIRE 4688 240 4688 160
WIRE 4736 240 4688 240
WIRE 5824 240 5744 240
WIRE 6032 240 5888 240
WIRE 6176 240 6096 240
WIRE 6288 240 6256 240
WIRE 3616 256 3344 256
WIRE 4592 272 4592 240
WIRE 4736 272 4592 272
WIRE 4864 272 4864 0
WIRE 4864 272 4800 272
WIRE 5072 272 4864 272
WIRE 6656 272 6656 144
WIRE 6784 272 6656 272
WIRE 6976 272 6864 272
WIRE 928 352 928 320
WIRE 1024 352 1024 224
WIRE 1024 352 928 352
WIRE 928 384 928 352
WIRE 2144 400 2016 400
WIRE 2352 400 2224 400
WIRE 6976 400 6976 272
WIRE 3344 448 3344 256
WIRE 3344 448 3088 448
WIRE 4864 496 4672 496
WIRE 1632 528 1456 528
WIRE 1760 528 1696 528
WIRE 1824 528 1760 528
WIRE 2016 528 2016 400
WIRE 2016 528 1904 528
WIRE 2144 528 2016 528
WIRE 928 544 928 464
WIRE 2352 544 2352 400
WIRE 2352 544 2208 544
WIRE 2448 544 2352 544
WIRE 3344 544 3088 544
WIRE 4592 576 4416 576
WIRE 4736 576 4592 576
WIRE 6784 592 6656 592
WIRE 6976 592 6976 480
WIRE 6976 592 6864 592
WIRE 4672 608 4672 496
WIRE 4736 608 4672 608
WIRE 4896 608 4800 608
WIRE 5072 608 4896 608
WIRE 5840 608 5760 608
WIRE 6048 608 5904 608
WIRE 6224 608 6112 608
WIRE 3648 624 3648 576
WIRE 3680 624 3648 624
WIRE 3776 624 3760 624
WIRE 4896 656 4896 608
WIRE 4896 656 4688 656
WIRE 4592 672 4592 576
WIRE 6368 704 6368 656
WIRE 6656 704 6656 592
WIRE 6656 704 6368 704
WIRE 6736 704 6656 704
WIRE 3648 720 3648 624
WIRE 1760 736 1760 528
WIRE 2448 736 1760 736
WIRE 3568 736 3568 224
WIRE 3616 736 3568 736
WIRE 4688 736 4688 656
WIRE 4736 736 4688 736
WIRE 3776 752 3776 624
WIRE 3776 752 3680 752
WIRE 6368 752 6368 704
WIRE 3344 768 3344 544
WIRE 3616 768 3344 768
WIRE 4592 768 4592 736
WIRE 4736 768 4592 768
WIRE 4864 768 4864 496
WIRE 4864 768 4800 768
WIRE 5072 768 4864 768
WIRE 5840 800 5760 800
WIRE 6048 800 5904 800
WIRE 6192 800 6112 800
WIRE 6304 800 6272 800
WIRE 3776 896 3776 752
WIRE 3568 912 3568 736
WIRE 3568 912 3536 912
WIRE 6656 912 6656 704
WIRE 6880 912 6656 912
WIRE 7120 912 6960 912
WIRE 7312 912 7120 912
WIRE 7120 928 7120 912
WIRE 7120 1024 7120 992
FLAG 1456 528 Vin_a
IOPIN 1456 528 In
FLAG 2448 544 Vin_a-
IOPIN 2448 544 Out
FLAG 2448 736 Vin_a+
IOPIN 2448 736 Out
FLAG 3536 912 V_ramp
IOPIN 3536 912 In
FLAG 3088 448 Vin_a-
IOPIN 3088 448 In
FLAG 3088 544 Vin_a+
IOPIN 3088 544 In
FLAG 3776 16 V_pwm_p
IOPIN 3776 16 Out
FLAG 3776 896 V_pwm_n
IOPIN 3776 896 Out
FLAG 928 96 0
FLAG 928 544 0
FLAG 1088 224 V_cm
IOPIN 1088 224 Out
FLAG 2000 -64 V_cm
IOPIN 2000 -64 In
FLAG 1024 112 V_dd
IOPIN 1024 112 Out
FLAG 2000 0 V_dd
IOPIN 2000 0 In
FLAG 3648 80 V_dd
IOPIN 3648 80 In
FLAG 3648 576 V_dd
IOPIN 3648 576 In
FLAG 3648 272 0
FLAG 3648 784 0
FLAG 2368 -64 V_ramp
IOPIN 2368 -64 Out
FLAG 1616 -160 0
FLAG 1616 0 Vin_a
IOPIN 1616 0 In
FLAG 2144 560 V_cm
IOPIN 2144 560 In
FLAG 4416 80 V_pwm_p
IOPIN 4416 80 In
FLAG 5072 112 Q_1n
IOPIN 5072 112 Out
FLAG 5072 272 Q_1p
IOPIN 5072 272 Out
FLAG 4416 576 V_pwm_n
IOPIN 4416 576 In
FLAG 5072 608 Q_2n
IOPIN 5072 608 Out
FLAG 5072 768 Q_2p
IOPIN 5072 768 Out
FLAG 6352 0 V_dd
IOPIN 6352 0 Out
FLAG 6352 288 0
FLAG 5744 48 Q_1p
IOPIN 5744 48 In
FLAG 5744 240 Q_1n
IOPIN 5744 240 In
FLAG 6368 560 V_dd
IOPIN 6368 560 Out
FLAG 6368 848 0
FLAG 5760 608 Q_2p
IOPIN 5760 608 In
FLAG 5760 800 Q_2n
IOPIN 5760 800 In
FLAG 6736 144 Vout_p
IOPIN 6736 144 Out
FLAG 6736 704 Vout_n
IOPIN 6736 704 Out
FLAG 7120 32 0
FLAG 7312 -80 Vout_p_check
IOPIN 7312 -80 Out
FLAG 7120 1024 0
FLAG 7312 912 Vout_n_check
IOPIN 7312 912 Out
SYMBOL cap 1696 512 R90
WINDOW 0 0 32 VBottom 2
WINDOW 3 32 32 VTop 2
SYMATTR InstName C1
SYMATTR Value 10µ
SYMBOL res 1920 512 R90
WINDOW 0 0 56 VBottom 2
WINDOW 3 32 56 VTop 2
SYMATTR InstName R1
SYMATTR Value 10k
SYMBOL res 2240 384 R90
WINDOW 0 0 56 VBottom 2
WINDOW 3 32 56 VTop 2
SYMATTR InstName R2
SYMATTR Value 10k
SYMBOL OpAmps\\UniversalOpAmp 2176 544 R0
SYMATTR InstName U1
SYMBOL Comparators\\LTC6752 3648 176 R0
SYMATTR InstName U2
SYMBOL Comparators\\LTC6752 3648 688 R0
SYMATTR InstName U3
SYMBOL Exp_1_block 2192 -48 R0
SYMATTR InstName Exp1
SYMBOL voltage 928 192 R180
WINDOW 0 24 96 Left 2
WINDOW 3 24 16 Left 2
WINDOW 123 0 0 Left 0
WINDOW 39 0 0 Left 0
SYMATTR InstName V1
SYMATTR Value 5
SYMBOL res 912 224 R0
SYMATTR InstName R5
SYMATTR Value 5
SYMBOL res 912 368 R0
SYMATTR InstName R6
SYMATTR Value 5
SYMBOL res 3760 112 R90
WINDOW 0 0 56 VBottom 2
WINDOW 3 32 56 VTop 2
SYMATTR InstName R7
SYMATTR Value 4.7k
SYMBOL res 3776 608 R90
WINDOW 0 0 56 VBottom 2
WINDOW 3 32 56 VTop 2
SYMATTR InstName R8
SYMATTR Value 4.7k
SYMBOL voltage 1616 -64 R180
WINDOW 0 24 96 Left 2
WINDOW 3 24 16 Left 2
WINDOW 123 0 0 Left 0
WINDOW 39 0 0 Left 0
SYMATTR InstName V2
SYMATTR Value SINE(2.5 0.5 1k)
SYMBOL Digital\\inv 4656 176 R90
SYMATTR InstName A1
SYMBOL Digital\\and 4768 32 R0
SYMATTR InstName A2
SYMBOL Digital\\and 4768 192 R0
SYMATTR InstName A3
SYMBOL Digital\\inv 4656 672 R90
SYMATTR InstName A4
SYMBOL Digital\\and 4768 528 R0
SYMATTR InstName A5
SYMBOL Digital\\and 4768 688 R0
SYMATTR InstName A6
SYMBOL Digital\\inv 5824 -16 R0
SYMATTR InstName A7
SYMBOL Digital\\inv 6032 -16 R0
SYMATTR InstName A8
SYMBOL res 6304 32 R90
WINDOW 0 0 56 VBottom 2
WINDOW 3 32 56 VTop 2
SYMATTR InstName R3
SYMATTR Value 1.2k
SYMBOL pnp 6288 96 M180
SYMATTR InstName Q1
SYMBOL Digital\\inv 5824 176 R0
SYMATTR InstName A9
SYMBOL Digital\\inv 6032 176 R0
SYMATTR InstName A10
SYMBOL res 6272 224 R90
WINDOW 0 0 56 VBottom 2
WINDOW 3 32 56 VTop 2
SYMATTR InstName R4
SYMATTR Value 1.2k
SYMBOL npn 6288 192 R0
SYMATTR InstName Q2
SYMBOL Digital\\inv 5840 544 R0
SYMATTR InstName A11
SYMBOL Digital\\inv 6048 544 R0
SYMATTR InstName A12
SYMBOL res 6320 592 R90
WINDOW 0 0 56 VBottom 2
WINDOW 3 32 56 VTop 2
SYMATTR InstName R9
SYMATTR Value 1.2k
SYMBOL pnp 6304 656 M180
SYMATTR InstName Q3
SYMBOL Digital\\inv 5840 736 R0
SYMATTR InstName A13
SYMBOL Digital\\inv 6048 736 R0
SYMATTR InstName A14
SYMBOL res 6288 784 R90
WINDOW 0 0 56 VBottom 2
WINDOW 3 32 56 VTop 2
SYMATTR InstName R10
SYMATTR Value 1.2k
SYMBOL npn 6304 752 R0
SYMATTR InstName Q4
SYMBOL res 6976 -96 R90
WINDOW 0 0 56 VBottom 2
WINDOW 3 32 56 VTop 2
SYMATTR InstName R12
SYMATTR Value 1Meg
SYMBOL cap 7104 -64 R0
SYMATTR InstName C2
SYMATTR Value 50p
SYMBOL res 6976 896 R90
WINDOW 0 0 56 VBottom 2
WINDOW 3 32 56 VTop 2
SYMATTR InstName R13
SYMATTR Value 1Meg
SYMBOL cap 7104 928 R0
SYMATTR InstName C3
SYMATTR Value 50p
SYMBOL res 6880 256 R90
WINDOW 0 0 56 VBottom 2
WINDOW 3 32 56 VTop 2
SYMATTR InstName R11
SYMATTR Value 16
SYMBOL res 6880 576 R90
WINDOW 0 0 56 VBottom 2
WINDOW 3 32 56 VTop 2
SYMATTR InstName R14
SYMATTR Value 16
SYMBOL ind 6960 384 R0
SYMATTR InstName L1
SYMATTR Value 500µ
TEXT 1808 928 Left 2 ;Single Ended to Differential Converter
TEXT 3752 1216 Left 2 ;PWM Modulator
TEXT 4616 1224 Left 2 ;Non Overlap Generators
TEXT 5976 1216 Left 2 ;H-bridge Drivers
TEXT 872 1248 Left 2 !.tran 1 uic
TEXT 6872 1720 Left 2 ;Done by Kaushik, EE20B057
TEXT 6872 1752 Left 2 ;Analog Labs 2022 Summer
RECTANGLE Normal 2720 880 1312 272 2
RECTANGLE Normal 3936 1136 2784 -272 2
RECTANGLE Normal 5056 1168 4416 -288 2
RECTANGLE Normal 6544 1168 5488 -304 2
RECTANGLE Normal 7216 1808 6832 1664 2
